<?xml version="1.0" encoding="UTF-8"?>

<configuration xmlns:xsi="http://www.w3.org/2001/XMLSchema-instance" xsi:noNamespaceSchemaLocation="http://sumo.dlr.de/xsd/sumoConfiguration.xsd">

    <input>
        <!-- Correctly reference multiple route files with space separation -->
        <net-file value="sumoproject.net.xml"/>
        <route-files value="sumoproject.rou.xml"/>
    </input>

    <time>
        <begin value="0"/>
        <end value="80000"/>
    </time>

    <!-- Other simulation settings -->
</configuration>
