<edges>
<edge id="e1" from="1" to="2" priority="2" numLanes="1" speed="14.0"/>
<edge id="e2" from="2" to="3" priority="2" numLanes="1" speed="14.0"/>
<edge id="e3" from="3" to="4" priority="2" numLanes="1" speed="14.0"/>
<edge id="e4" from="4" to="5" priority="2" numLanes="1" speed="14.0"/>
<edge id="e5" from="5" to="6" priority="2" numLanes="1" speed="14.0"/>
<edge id="e6" from="7" to="8" priority="2" numLanes="1" speed="14.0"/>
<edge id="e7" from="8" to="9" priority="2" numLanes="1" speed="14.0"/>
<edge id="e8" from="9" to="10" priority="2" numLanes="1" speed="14.0"/>
<edge id="e9" from="10" to="11" priority="2" numLanes="1" speed="14.0"/>
<edge id="e10" from="11" to="12" priority="2" numLanes="1" speed="14.0"/>
<edge id="e11" from="13" to="14" priority="2" numLanes="1" speed="14.0"/>
<edge id="e12" from="14" to="15" priority="2" numLanes="1" speed="14.0"/>
<edge id="e13" from="15" to="16" priority="2" numLanes="1" speed="14.0"/>
<edge id="e14" from="16" to="17" priority="2" numLanes="1" speed="14.0"/>
<edge id="e15" from="17" to="18" priority="2" numLanes="1" speed="14.0"/>
<edge id="e16" from="19" to="20" priority="2" numLanes="1" speed="14.0"/>
<edge id="e17" from="20" to="21" priority="2" numLanes="1" speed="14.0"/>
<edge id="e18" from="21" to="22" priority="2" numLanes="1" speed="14.0"/>
<edge id="e19" from="22" to="23" priority="2" numLanes="1" speed="14.0"/>
<edge id="e20" from="23" to="24" priority="2" numLanes="1" speed="14.0"/>
<edge id="e21" from="25" to="26" priority="2" numLanes="1" speed="14.0"/>
<edge id="e22" from="26" to="27" priority="2" numLanes="1" speed="14.0"/>
<edge id="e23" from="27" to="28" priority="2" numLanes="1" speed="14.0"/>
<edge id="e24" from="28" to="29" priority="2" numLanes="1" speed="14.0"/>
<edge id="e25" from="29" to="30" priority="2" numLanes="1" speed="14.0"/>
<edge id="e26" from="31" to="32" priority="2" numLanes="1" speed="14.0"/>
<edge id="e27" from="32" to="33" priority="2" numLanes="1" speed="14.0"/>
<edge id="e28" from="33" to="34" priority="2" numLanes="1" speed="14.0"/>
<edge id="e29" from="34" to="35" priority="2" numLanes="1" speed="14.0"/>
<edge id="e30" from="35" to="36" priority="2" numLanes="1" speed="14.0"/>
<edge id="e31" from="1" to="7" priority="2" numLanes="1" speed="14.0"/>
<edge id="e32" from="7" to="13" priority="2" numLanes="1" speed="14.0"/>
<edge id="e33" from="13" to="19" priority="2" numLanes="1" speed="14.0"/>
<edge id="e34" from="19" to="25" priority="2" numLanes="1" speed="14.0"/>
<edge id="e35" from="25" to="31" priority="2" numLanes="1" speed="14.0"/>
<edge id="e36" from="2" to="8" priority="2" numLanes="1" speed="14.0"/>
<edge id="e37" from="8" to="14" priority="2" numLanes="1" speed="14.0"/>
<edge id="e38" from="14" to="20" priority="2" numLanes="1" speed="14.0"/>
<edge id="e39" from="20" to="26" priority="2" numLanes="1" speed="14.0"/>
<edge id="e40" from="26" to="32" priority="2" numLanes="1" speed="14.0"/>
<edge id="e41" from="3" to="9" priority="2" numLanes="1" speed="14.0"/>
<edge id="e42" from="9" to="15" priority="2" numLanes="1" speed="14.0"/>
<edge id="e43" from="15" to="21" priority="2" numLanes="1" speed="14.0"/>
<edge id="e44" from="21" to="27" priority="2" numLanes="1" speed="14.0"/>
<edge id="e45" from="27" to="33" priority="2" numLanes="1" speed="14.0"/>
<edge id="e46" from="4" to="10" priority="2" numLanes="1" speed="14.0"/>
<edge id="e47" from="10" to="16" priority="2" numLanes="1" speed="14.0"/>
<edge id="e48" from="16" to="22" priority="2" numLanes="1" speed="14.0"/>
<edge id="e49" from="22" to="28" priority="2" numLanes="1" speed="14.0"/>
<edge id="e50" from="28" to="34" priority="2" numLanes="1" speed="14.0"/>
<edge id="e51" from="5" to="11" priority="2" numLanes="1" speed="14.0"/>
<edge id="e52" from="11" to="17" priority="2" numLanes="1" speed="14.0"/>
<edge id="e53" from="17" to="23" priority="2" numLanes="1" speed="14.0"/>
<edge id="e54" from="23" to="29" priority="2" numLanes="1" speed="14.0"/>
<edge id="e55" from="29" to="35" priority="2" numLanes="1" speed="14.0"/>
<edge id="e56" from="6" to="12" priority="2" numLanes="1" speed="14.0"/>
<edge id="e57" from="12" to="18" priority="2" numLanes="1" speed="14.0"/>
<edge id="e58" from="18" to="24" priority="2" numLanes="1" speed="14.0"/>
<edge id="e59" from="24" to="30" priority="2" numLanes="1" speed="14.0"/>
<edge id="e60" from="30" to="36" priority="2" numLanes="1" speed="14.0"/>
<edge id="e61" from="1" to="8" priority="2" numLanes="1" speed="14.0"/>
<edge id="e62" from="8" to="15" priority="2" numLanes="1" speed="14.0"/>
<edge id="e63" from="22" to="29" priority="2" numLanes="1" speed="14.0"/>
<edge id="e64" from="29" to="36" priority="2" numLanes="1" speed="14.0"/>
<edge id="e65" from="6" to="11" priority="2" numLanes="1" speed="14.0"/>
<edge id="e66" from="11" to="16" priority="2" numLanes="1" speed="14.0"/>
<edge id="e67" from="21" to="26" priority="2" numLanes="1" speed="14.0"/>
<edge id="e68" from="26" to="31" priority="2" numLanes="1" speed="14.0"/>
<edge id="re1" from="2" to="1" priority="2" numLanes="1" speed="14.0"/>
<edge id="re2" from="3" to="2" priority="2" numLanes="1" speed="14.0"/>
<edge id="re3" from="4" to="3" priority="2" numLanes="1" speed="14.0"/>
<edge id="re4" from="5" to="4" priority="2" numLanes="1" speed="14.0"/>
<edge id="re5" from="6" to="5" priority="2" numLanes="1" speed="14.0"/>
<edge id="re6" from="8" to="7" priority="2" numLanes="1" speed="14.0"/>
<edge id="re7" from="9" to="8" priority="2" numLanes="1" speed="14.0"/>
<edge id="re8" from="10" to="9" priority="2" numLanes="1" speed="14.0"/>
<edge id="re9" from="11" to="10" priority="2" numLanes="1" speed="14.0"/>
<edge id="re10" from="12" to="11" priority="2" numLanes="1" speed="14.0"/>
<edge id="re11" from="14" to="13" priority="2" numLanes="1" speed="14.0"/>
<edge id="re12" from="15" to="14" priority="2" numLanes="1" speed="14.0"/>
<edge id="re13" from="16" to="15" priority="2" numLanes="1" speed="14.0"/>
<edge id="re14" from="17" to="16" priority="2" numLanes="1" speed="14.0"/>
<edge id="re15" from="18" to="17" priority="2" numLanes="1" speed="14.0"/>
<edge id="re16" from="20" to="19" priority="2" numLanes="1" speed="14.0"/>
<edge id="re17" from="21" to="20" priority="2" numLanes="1" speed="14.0"/>
<edge id="re18" from="22" to="21" priority="2" numLanes="1" speed="14.0"/>
<edge id="re19" from="23" to="22" priority="2" numLanes="1" speed="14.0"/>
<edge id="re20" from="24" to="23" priority="2" numLanes="1" speed="14.0"/>
<edge id="re21" from="26" to="25" priority="2" numLanes="1" speed="14.0"/>
<edge id="re22" from="27" to="26" priority="2" numLanes="1" speed="14.0"/>
<edge id="re23" from="28" to="27" priority="2" numLanes="1" speed="14.0"/>
<edge id="re24" from="29" to="28" priority="2" numLanes="1" speed="14.0"/>
<edge id="re25" from="30" to="29" priority="2" numLanes="1" speed="14.0"/>
<edge id="re26" from="32" to="31" priority="2" numLanes="1" speed="14.0"/>
<edge id="re27" from="33" to="32" priority="2" numLanes="1" speed="14.0"/>
<edge id="re28" from="34" to="33" priority="2" numLanes="1" speed="14.0"/>
<edge id="re29" from="35" to="34" priority="2" numLanes="1" speed="14.0"/>
<edge id="re30" from="36" to="35" priority="2" numLanes="1" speed="14.0"/>
<edge id="re31" from="7" to="1" priority="2" numLanes="1" speed="14.0"/>
<edge id="re32" from="13" to="7" priority="2" numLanes="1" speed="14.0"/>
<edge id="re33" from="19" to="13" priority="2" numLanes="1" speed="14.0"/>
<edge id="re34" from="25" to="19" priority="2" numLanes="1" speed="14.0"/>
<edge id="re35" from="31" to="25" priority="2" numLanes="1" speed="14.0"/>
<edge id="re36" from="8" to="2" priority="2" numLanes="1" speed="14.0"/>
<edge id="re37" from="14" to="8" priority="2" numLanes="1" speed="14.0"/>
<edge id="re38" from="20" to="14" priority="2" numLanes="1" speed="14.0"/>
<edge id="re39" from="26" to="20" priority="2" numLanes="1" speed="14.0"/>
<edge id="re40" from="32" to="26" priority="2" numLanes="1" speed="14.0"/>
<edge id="re41" from="9" to="3" priority="2" numLanes="1" speed="14.0"/>
<edge id="re42" from="15" to="9" priority="2" numLanes="1" speed="14.0"/>
<edge id="re43" from="21" to="15" priority="2" numLanes="1" speed="14.0"/>
<edge id="re44" from="27" to="21" priority="2" numLanes="1" speed="14.0"/>
<edge id="re45" from="33" to="27" priority="2" numLanes="1" speed="14.0"/>
<edge id="re46" from="10" to="4" priority="2" numLanes="1" speed="14.0"/>
<edge id="re47" from="16" to="10" priority="2" numLanes="1" speed="14.0"/>
<edge id="re48" from="22" to="16" priority="2" numLanes="1" speed="14.0"/>
<edge id="re49" from="28" to="22" priority="2" numLanes="1" speed="14.0"/>
<edge id="re50" from="34" to="28" priority="2" numLanes="1" speed="14.0"/>
<edge id="re51" from="11" to="5" priority="2" numLanes="1" speed="14.0"/>
<edge id="re52" from="17" to="11" priority="2" numLanes="1" speed="14.0"/>
<edge id="re53" from="23" to="17" priority="2" numLanes="1" speed="14.0"/>
<edge id="re54" from="29" to="23" priority="2" numLanes="1" speed="14.0"/>
<edge id="re55" from="35" to="29" priority="2" numLanes="1" speed="14.0"/>
<edge id="re56" from="12" to="6" priority="2" numLanes="1" speed="14.0"/>
<edge id="re57" from="18" to="12" priority="2" numLanes="1" speed="14.0"/>
<edge id="re58" from="24" to="18" priority="2" numLanes="1" speed="14.0"/>
<edge id="re59" from="30" to="24" priority="2" numLanes="1" speed="14.0"/>
<edge id="re60" from="36" to="30" priority="2" numLanes="1" speed="14.0"/>
<edge id="re61" from="8" to="1" priority="2" numLanes="1" speed="14.0"/>
<edge id="re62" from="15" to="8" priority="2" numLanes="1" speed="14.0"/>
<edge id="re63" from="29" to="22" priority="2" numLanes="1" speed="14.0"/>
<edge id="re64" from="36" to="29" priority="2" numLanes="1" speed="14.0"/>
<edge id="re65" from="11" to="6" priority="2" numLanes="1" speed="14.0"/>
<edge id="re66" from="16" to="11" priority="2" numLanes="1" speed="14.0"/>
<edge id="re67" from="26" to="21" priority="2" numLanes="1" speed="14.0"/>
<edge id="re68" from="31" to="26" priority="2" numLanes="1" speed="14.0"/>
</edges>
