<?xml version="1.0" encoding="UTF-8"?>

<!-- generated on 2024-12-18 15:54:26 by Eclipse SUMO netconvert Version 1.20.0
<configuration xmlns:xsi="http://www.w3.org/2001/XMLSchema-instance" xsi:noNamespaceSchemaLocation="http://sumo.dlr.de/xsd/netconvertConfiguration.xsd">

    <input>
        <node-files value="outputs/sumoproject.nod.xml"/>
        <edge-files value="outputs/sumoproject.edg.xml"/>
    </input>

    <output>
        <output-file value="outputs/sumoproject.net.xml"/>
    </output>

    <report>
        <no-warnings value="true"/>
    </report>

</configuration>
-->

<net version="1.20" junctionCornerDetail="5" limitTurnSpeed="5.50" xmlns:xsi="http://www.w3.org/2001/XMLSchema-instance" xsi:noNamespaceSchemaLocation="http://sumo.dlr.de/xsd/net_file.xsd">

    <location netOffset="0.00,2500.00" convBoundary="0.00,0.00,2500.00,2500.00" origBoundary="0.00,-2500.00,2500.00,0.00" projParameter="!"/>

    <edge id=":1_0" function="internal">
        <lane id=":1_0_0" index="0" speed="9.73" length="21.49" shape="11.73,2501.60 5.90,2500.77 1.73,2498.27 -0.77,2494.10 -1.60,2488.27"/>
    </edge>
    <edge id=":1_1" function="internal">
        <lane id=":1_1_0" index="0" speed="7.42" length="9.49" shape="11.73,2501.60 5.59,2500.91 2.92,2498.94"/>
    </edge>
    <edge id=":1_2" function="internal">
        <lane id=":1_2_0" index="0" speed="3.65" length="1.44" shape="11.73,2501.60 10.53,2500.80"/>
    </edge>
    <edge id=":1_9" function="internal">
        <lane id=":1_9_0" index="0" speed="7.42" length="9.82" shape="2.92,2498.94 2.79,2498.84 3.31,2495.40 7.16,2490.58"/>
    </edge>
    <edge id=":1_10" function="internal">
        <lane id=":1_10_0" index="0" speed="3.65" length="3.23" shape="10.53,2500.80 10.13,2500.00 10.53,2499.20 11.73,2498.40"/>
    </edge>
    <edge id=":1_3" function="internal">
        <lane id=":1_3_0" index="0" speed="5.47" length="9.74" shape="9.42,2492.84 7.48,2495.27 7.22,2497.01 8.63,2498.05 11.73,2498.40"/>
    </edge>
    <edge id=":1_4" function="internal">
        <lane id=":1_4_0" index="0" speed="7.42" length="19.31" shape="9.42,2492.84 4.60,2496.69 1.16,2497.21 -0.91,2494.41 -1.60,2488.27"/>
    </edge>
    <edge id=":1_5" function="internal">
        <lane id=":1_5_0" index="0" speed="3.65" length="1.44" shape="9.42,2492.84 8.01,2493.12"/>
    </edge>
    <edge id=":1_11" function="internal">
        <lane id=":1_11_0" index="0" speed="3.65" length="3.23" shape="8.01,2493.12 7.16,2492.84 6.88,2491.99 7.16,2490.58"/>
    </edge>
    <edge id=":1_6" function="internal">
        <lane id=":1_6_0" index="0" speed="5.47" length="9.74" shape="1.60,2488.27 1.95,2491.37 2.99,2492.78 4.73,2492.52 7.16,2490.58"/>
    </edge>
    <edge id=":1_7" function="internal">
        <lane id=":1_7_0" index="0" speed="8.54" length="16.33" shape="1.60,2488.27 2.23,2492.70 4.13,2495.87 7.30,2497.77 11.73,2498.40"/>
    </edge>
    <edge id=":1_8" function="internal">
        <lane id=":1_8_0" index="0" speed="3.65" length="1.30" shape="1.60,2488.27 0.88,2489.36"/>
    </edge>
    <edge id=":1_12" function="internal">
        <lane id=":1_12_0" index="0" speed="3.65" length="3.37" shape="0.88,2489.36 0.80,2489.47 0.00,2489.87 -0.80,2489.47 -1.60,2488.27"/>
    </edge>
    <edge id=":10_0" function="internal">
        <lane id=":10_0_0" index="0" speed="6.51" length="9.03" shape="498.40,1007.20 498.05,1004.75 497.00,1003.00 495.25,1001.95 492.80,1001.60"/>
    </edge>
    <edge id=":10_1" function="internal">
        <lane id=":10_1_0" index="0" speed="14.00" length="14.40" shape="498.40,1007.20 498.40,992.80"/>
    </edge>
    <edge id=":10_2" function="internal">
        <lane id=":10_2_0" index="0" speed="8.00" length="4.07" shape="498.40,1007.20 498.95,1003.35 499.04,1003.20"/>
    </edge>
    <edge id=":10_3" function="internal">
        <lane id=":10_3_0" index="0" speed="3.65" length="1.44" shape="498.40,1007.20 499.20,1006.00"/>
    </edge>
    <edge id=":10_16" function="internal">
        <lane id=":10_16_0" index="0" speed="8.00" length="10.13" shape="499.04,1003.20 500.60,1000.60 503.35,998.95 507.20,998.40"/>
    </edge>
    <edge id=":10_17" function="internal">
        <lane id=":10_17_0" index="0" speed="3.65" length="3.23" shape="499.20,1006.00 500.00,1005.60 500.80,1006.00 501.60,1007.20"/>
    </edge>
    <edge id=":10_4" function="internal">
        <lane id=":10_4_0" index="0" speed="6.51" length="9.03" shape="507.20,1001.60 504.75,1001.95 503.00,1003.00 501.95,1004.75 501.60,1007.20"/>
    </edge>
    <edge id=":10_5" function="internal">
        <lane id=":10_5_0" index="0" speed="14.00" length="14.40" shape="507.20,1001.60 492.80,1001.60"/>
    </edge>
    <edge id=":10_6" function="internal">
        <lane id=":10_6_0" index="0" speed="8.00" length="4.07" shape="507.20,1001.60 503.35,1001.05 503.20,1000.96"/>
    </edge>
    <edge id=":10_7" function="internal">
        <lane id=":10_7_0" index="0" speed="3.65" length="1.44" shape="507.20,1001.60 506.00,1000.80"/>
    </edge>
    <edge id=":10_18" function="internal">
        <lane id=":10_18_0" index="0" speed="8.00" length="10.13" shape="503.20,1000.96 500.60,999.40 498.95,996.65 498.40,992.80"/>
    </edge>
    <edge id=":10_19" function="internal">
        <lane id=":10_19_0" index="0" speed="3.65" length="3.23" shape="506.00,1000.80 505.60,1000.00 506.00,999.20 507.20,998.40"/>
    </edge>
    <edge id=":10_8" function="internal">
        <lane id=":10_8_0" index="0" speed="6.51" length="9.03" shape="501.60,992.80 501.95,995.25 503.00,997.00 504.75,998.05 507.20,998.40"/>
    </edge>
    <edge id=":10_9" function="internal">
        <lane id=":10_9_0" index="0" speed="14.00" length="14.40" shape="501.60,992.80 501.60,1007.20"/>
    </edge>
    <edge id=":10_10" function="internal">
        <lane id=":10_10_0" index="0" speed="8.00" length="4.07" shape="501.60,992.80 501.05,996.65 500.96,996.80"/>
    </edge>
    <edge id=":10_11" function="internal">
        <lane id=":10_11_0" index="0" speed="3.65" length="1.44" shape="501.60,992.80 500.80,994.00"/>
    </edge>
    <edge id=":10_20" function="internal">
        <lane id=":10_20_0" index="0" speed="8.00" length="10.13" shape="500.96,996.80 499.40,999.40 496.65,1001.05 492.80,1001.60"/>
    </edge>
    <edge id=":10_21" function="internal">
        <lane id=":10_21_0" index="0" speed="3.65" length="3.23" shape="500.80,994.00 500.00,994.40 499.20,994.00 498.40,992.80"/>
    </edge>
    <edge id=":10_12" function="internal">
        <lane id=":10_12_0" index="0" speed="6.51" length="9.03" shape="492.80,998.40 495.25,998.05 497.00,997.00 498.05,995.25 498.40,992.80"/>
    </edge>
    <edge id=":10_13" function="internal">
        <lane id=":10_13_0" index="0" speed="14.00" length="14.40" shape="492.80,998.40 507.20,998.40"/>
    </edge>
    <edge id=":10_14" function="internal">
        <lane id=":10_14_0" index="0" speed="8.00" length="4.07" shape="492.80,998.40 496.65,998.95 496.80,999.04"/>
    </edge>
    <edge id=":10_15" function="internal">
        <lane id=":10_15_0" index="0" speed="3.65" length="1.44" shape="492.80,998.40 494.00,999.20"/>
    </edge>
    <edge id=":10_22" function="internal">
        <lane id=":10_22_0" index="0" speed="8.00" length="10.13" shape="496.80,999.04 499.40,1000.60 501.05,1003.35 501.60,1007.20"/>
    </edge>
    <edge id=":10_23" function="internal">
        <lane id=":10_23_0" index="0" speed="3.65" length="3.23" shape="494.00,999.20 494.40,1000.00 494.00,1000.80 492.80,1001.60"/>
    </edge>
    <edge id=":11_0" function="internal">
        <lane id=":11_0_0" index="0" speed="8.54" length="16.33" shape="498.40,511.73 497.77,507.30 495.87,504.13 492.70,502.23 488.27,501.60"/>
    </edge>
    <edge id=":11_1" function="internal">
        <lane id=":11_1_0" index="0" speed="14.00" length="20.98" shape="498.40,511.73 497.91,506.40 496.44,501.47 494.00,496.95 490.58,492.84"/>
    </edge>
    <edge id=":11_2" function="internal">
        <lane id=":11_2_0" index="0" speed="14.00" length="23.45" shape="498.40,511.73 498.40,488.27"/>
    </edge>
    <edge id=":11_3" function="internal">
        <lane id=":11_3_0" index="0" speed="9.73" length="5.01" shape="498.40,511.73 499.11,506.76"/>
    </edge>
    <edge id=":11_4" function="internal">
        <lane id=":11_4_0" index="0" speed="7.42" length="6.00" shape="498.40,511.73 499.07,505.76"/>
    </edge>
    <edge id=":11_5" function="internal">
        <lane id=":11_5_0" index="0" speed="3.65" length="1.44" shape="498.40,511.73 499.20,510.53"/>
    </edge>
    <edge id=":11_36" function="internal">
        <lane id=":11_36_0" index="0" speed="9.73" length="16.48" shape="499.11,506.76 499.23,505.90 501.73,501.73 505.90,499.23 511.73,498.40"/>
    </edge>
    <edge id=":11_37" function="internal">
        <lane id=":11_37_0" index="0" speed="7.42" length="13.30" shape="499.07,505.76 499.09,505.59 501.16,502.79 504.60,503.31 509.42,507.16"/>
    </edge>
    <edge id=":11_38" function="internal">
        <lane id=":11_38_0" index="0" speed="3.65" length="3.23" shape="499.20,510.53 500.00,510.13 500.80,510.53 501.60,511.73"/>
    </edge>
    <edge id=":11_6" function="internal">
        <lane id=":11_6_0" index="0" speed="5.47" length="9.74" shape="507.16,509.42 504.73,507.48 502.99,507.22 501.95,508.63 501.60,511.73"/>
    </edge>
    <edge id=":11_7" function="internal">
        <lane id=":11_7_0" index="0" speed="14.00" length="20.98" shape="507.16,509.42 503.05,506.00 498.53,503.56 493.60,502.09 488.27,501.60"/>
    </edge>
    <edge id=":11_8" function="internal">
        <lane id=":11_8_0" index="0" speed="14.00" length="23.45" shape="507.16,509.42 490.58,492.84"/>
    </edge>
    <edge id=":11_9" function="internal">
        <lane id=":11_9_0" index="0" speed="14.00" length="6.48" shape="507.16,509.42 503.33,504.82 503.10,504.39"/>
    </edge>
    <edge id=":11_10" function="internal">
        <lane id=":11_10_0" index="0" speed="7.42" length="6.00" shape="507.16,509.42 503.42,504.73"/>
    </edge>
    <edge id=":11_11" function="internal">
        <lane id=":11_11_0" index="0" speed="3.65" length="1.44" shape="507.16,509.42 506.88,508.01"/>
    </edge>
    <edge id=":11_39" function="internal">
        <lane id=":11_39_0" index="0" speed="14.00" length="17.01" shape="503.10,504.39 500.59,499.76 498.95,494.24 498.40,488.27"/>
    </edge>
    <edge id=":11_40" function="internal">
        <lane id=":11_40_0" index="0" speed="7.42" length="13.30" shape="503.42,504.73 503.31,504.60 502.79,501.16 505.59,499.09 511.73,498.40"/>
    </edge>
    <edge id=":11_41" function="internal">
        <lane id=":11_41_0" index="0" speed="3.65" length="3.23" shape="506.88,508.01 507.16,507.16 508.01,506.88 509.42,507.16"/>
    </edge>
    <edge id=":11_12" function="internal">
        <lane id=":11_12_0" index="0" speed="5.47" length="9.74" shape="511.73,501.60 508.63,501.95 507.22,502.99 507.48,504.73 509.42,507.16"/>
    </edge>
    <edge id=":11_13" function="internal">
        <lane id=":11_13_0" index="0" speed="8.54" length="16.33" shape="511.73,501.60 507.30,502.23 504.13,504.13 502.23,507.30 501.60,511.73"/>
    </edge>
    <edge id=":11_14" function="internal">
        <lane id=":11_14_0" index="0" speed="14.00" length="23.45" shape="511.73,501.60 488.27,501.60"/>
    </edge>
    <edge id=":11_15" function="internal">
        <lane id=":11_15_0" index="0" speed="14.00" length="6.48" shape="511.73,501.60 505.76,501.05 505.29,500.91"/>
    </edge>
    <edge id=":11_16" function="internal">
        <lane id=":11_16_0" index="0" speed="9.73" length="5.01" shape="511.73,501.60 506.76,500.89"/>
    </edge>
    <edge id=":11_17" function="internal">
        <lane id=":11_17_0" index="0" speed="3.65" length="1.44" shape="511.73,501.60 510.53,500.80"/>
    </edge>
    <edge id=":11_42" function="internal">
        <lane id=":11_42_0" index="0" speed="14.00" length="17.01" shape="505.29,500.91 500.24,499.41 495.18,496.67 490.58,492.84"/>
    </edge>
    <edge id=":11_43" function="internal">
        <lane id=":11_43_0" index="0" speed="9.73" length="16.48" shape="506.76,500.89 505.90,500.77 501.73,498.27 499.23,494.10 498.40,488.27"/>
    </edge>
    <edge id=":11_44" function="internal">
        <lane id=":11_44_0" index="0" speed="3.65" length="3.23" shape="510.53,500.80 510.13,500.00 510.53,499.20 511.73,498.40"/>
    </edge>
    <edge id=":11_18" function="internal">
        <lane id=":11_18_0" index="0" speed="8.54" length="16.33" shape="501.60,488.27 502.23,492.70 504.13,495.87 507.30,497.77 511.73,498.40"/>
    </edge>
    <edge id=":11_19" function="internal">
        <lane id=":11_19_0" index="0" speed="14.00" length="20.98" shape="501.60,488.27 502.09,493.60 503.56,498.53 506.00,503.05 509.42,507.16"/>
    </edge>
    <edge id=":11_20" function="internal">
        <lane id=":11_20_0" index="0" speed="14.00" length="23.45" shape="501.60,488.27 501.60,511.73"/>
    </edge>
    <edge id=":11_21" function="internal">
        <lane id=":11_21_0" index="0" speed="9.73" length="5.01" shape="501.60,488.27 500.89,493.24"/>
    </edge>
    <edge id=":11_22" function="internal">
        <lane id=":11_22_0" index="0" speed="7.42" length="6.00" shape="501.60,488.27 500.93,494.24"/>
    </edge>
    <edge id=":11_23" function="internal">
        <lane id=":11_23_0" index="0" speed="3.65" length="1.44" shape="501.60,488.27 500.80,489.47"/>
    </edge>
    <edge id=":11_45" function="internal">
        <lane id=":11_45_0" index="0" speed="9.73" length="16.48" shape="500.89,493.24 500.77,494.10 498.27,498.27 494.10,500.77 488.27,501.60"/>
    </edge>
    <edge id=":11_46" function="internal">
        <lane id=":11_46_0" index="0" speed="7.42" length="13.30" shape="500.93,494.24 500.91,494.41 498.84,497.21 495.40,496.69 490.58,492.84"/>
    </edge>
    <edge id=":11_47" function="internal">
        <lane id=":11_47_0" index="0" speed="3.65" length="3.23" shape="500.80,489.47 500.00,489.87 499.20,489.47 498.40,488.27"/>
    </edge>
    <edge id=":11_24" function="internal">
        <lane id=":11_24_0" index="0" speed="5.47" length="9.74" shape="492.84,490.58 495.27,492.52 497.01,492.78 498.05,491.37 498.40,488.27"/>
    </edge>
    <edge id=":11_25" function="internal">
        <lane id=":11_25_0" index="0" speed="14.00" length="20.98" shape="492.84,490.58 496.95,494.00 501.47,496.44 506.40,497.91 511.73,498.40"/>
    </edge>
    <edge id=":11_26" function="internal">
        <lane id=":11_26_0" index="0" speed="14.00" length="23.45" shape="492.84,490.58 509.42,507.16"/>
    </edge>
    <edge id=":11_27" function="internal">
        <lane id=":11_27_0" index="0" speed="14.00" length="6.48" shape="492.84,490.58 496.67,495.18 496.90,495.61"/>
    </edge>
    <edge id=":11_28" function="internal">
        <lane id=":11_28_0" index="0" speed="7.42" length="6.00" shape="492.84,490.58 496.58,495.27"/>
    </edge>
    <edge id=":11_29" function="internal">
        <lane id=":11_29_0" index="0" speed="3.65" length="1.44" shape="492.84,490.58 493.12,491.99"/>
    </edge>
    <edge id=":11_48" function="internal">
        <lane id=":11_48_0" index="0" speed="14.00" length="17.01" shape="496.90,495.61 499.41,500.24 501.05,505.76 501.60,511.73"/>
    </edge>
    <edge id=":11_49" function="internal">
        <lane id=":11_49_0" index="0" speed="7.42" length="13.30" shape="496.58,495.27 496.69,495.40 497.21,498.84 494.41,500.91 488.27,501.60"/>
    </edge>
    <edge id=":11_50" function="internal">
        <lane id=":11_50_0" index="0" speed="3.65" length="3.23" shape="493.12,491.99 492.84,492.84 491.99,493.12 490.58,492.84"/>
    </edge>
    <edge id=":11_30" function="internal">
        <lane id=":11_30_0" index="0" speed="5.47" length="9.74" shape="488.27,498.40 491.37,498.05 492.78,497.01 492.52,495.27 490.58,492.84"/>
    </edge>
    <edge id=":11_31" function="internal">
        <lane id=":11_31_0" index="0" speed="8.54" length="16.33" shape="488.27,498.40 492.70,497.77 495.87,495.87 497.77,492.70 498.40,488.27"/>
    </edge>
    <edge id=":11_32" function="internal">
        <lane id=":11_32_0" index="0" speed="14.00" length="23.45" shape="488.27,498.40 511.73,498.40"/>
    </edge>
    <edge id=":11_33" function="internal">
        <lane id=":11_33_0" index="0" speed="14.00" length="4.09" shape="488.27,498.40 492.30,499.11"/>
    </edge>
    <edge id=":11_34" function="internal">
        <lane id=":11_34_0" index="0" speed="9.73" length="5.01" shape="488.27,498.40 493.24,499.11"/>
    </edge>
    <edge id=":11_35" function="internal">
        <lane id=":11_35_0" index="0" speed="3.65" length="1.44" shape="488.27,498.40 489.47,499.20"/>
    </edge>
    <edge id=":11_51" function="internal">
        <lane id=":11_51_0" index="0" speed="14.00" length="19.06" shape="492.30,499.11 493.19,499.27 499.40,501.45 505.33,504.30 509.42,507.16"/>
    </edge>
    <edge id=":11_52" function="internal">
        <lane id=":11_52_0" index="0" speed="9.73" length="16.48" shape="493.24,499.11 494.10,499.23 498.27,501.73 500.77,505.90 501.60,511.73"/>
    </edge>
    <edge id=":11_53" function="internal">
        <lane id=":11_53_0" index="0" speed="3.65" length="3.23" shape="489.47,499.20 489.87,500.00 489.47,500.80 488.27,501.60"/>
    </edge>
    <edge id=":12_0" function="internal">
        <lane id=":12_0_0" index="0" speed="6.51" length="9.03" shape="498.40,7.20 498.05,4.75 497.00,3.00 495.25,1.95 492.80,1.60"/>
    </edge>
    <edge id=":12_1" function="internal">
        <lane id=":12_1_0" index="0" speed="8.00" length="14.19" shape="498.40,7.20 498.95,3.35 500.60,0.60 503.35,-1.05 507.20,-1.60"/>
    </edge>
    <edge id=":12_2" function="internal">
        <lane id=":12_2_0" index="0" speed="3.65" length="1.44" shape="498.40,7.20 499.20,6.00"/>
    </edge>
    <edge id=":12_9" function="internal">
        <lane id=":12_9_0" index="0" speed="3.65" length="3.23" shape="499.20,6.00 500.00,5.60 500.80,6.00 501.60,7.20"/>
    </edge>
    <edge id=":12_3" function="internal">
        <lane id=":12_3_0" index="0" speed="6.51" length="9.03" shape="507.20,1.60 504.75,1.95 503.00,3.00 501.95,4.75 501.60,7.20"/>
    </edge>
    <edge id=":12_4" function="internal">
        <lane id=":12_4_0" index="0" speed="14.00" length="14.40" shape="507.20,1.60 492.80,1.60"/>
    </edge>
    <edge id=":12_5" function="internal">
        <lane id=":12_5_0" index="0" speed="3.65" length="1.44" shape="507.20,1.60 506.00,0.80"/>
    </edge>
    <edge id=":12_10" function="internal">
        <lane id=":12_10_0" index="0" speed="3.65" length="3.23" shape="506.00,0.80 505.60,0.00 506.00,-0.80 507.20,-1.60"/>
    </edge>
    <edge id=":12_6" function="internal">
        <lane id=":12_6_0" index="0" speed="14.00" length="14.40" shape="492.80,-1.60 507.20,-1.60"/>
    </edge>
    <edge id=":12_7" function="internal">
        <lane id=":12_7_0" index="0" speed="8.00" length="4.07" shape="492.80,-1.60 496.65,-1.05 496.80,-0.96"/>
    </edge>
    <edge id=":12_8" function="internal">
        <lane id=":12_8_0" index="0" speed="3.65" length="1.44" shape="492.80,-1.60 494.00,-0.80"/>
    </edge>
    <edge id=":12_11" function="internal">
        <lane id=":12_11_0" index="0" speed="8.00" length="10.13" shape="496.80,-0.96 499.40,0.60 501.05,3.35 501.60,7.20"/>
    </edge>
    <edge id=":12_12" function="internal">
        <lane id=":12_12_0" index="0" speed="3.65" length="3.23" shape="494.00,-0.80 494.40,0.00 494.00,0.80 492.80,1.60"/>
    </edge>
    <edge id=":13_0" function="internal">
        <lane id=":13_0_0" index="0" speed="14.00" length="14.40" shape="1007.20,2501.60 992.80,2501.60"/>
    </edge>
    <edge id=":13_1" function="internal">
        <lane id=":13_1_0" index="0" speed="8.00" length="4.07" shape="1007.20,2501.60 1003.35,2501.05 1003.20,2500.96"/>
    </edge>
    <edge id=":13_2" function="internal">
        <lane id=":13_2_0" index="0" speed="3.65" length="1.44" shape="1007.20,2501.60 1006.00,2500.80"/>
    </edge>
    <edge id=":13_9" function="internal">
        <lane id=":13_9_0" index="0" speed="8.00" length="10.13" shape="1003.20,2500.96 1000.60,2499.40 998.95,2496.65 998.40,2492.80"/>
    </edge>
    <edge id=":13_10" function="internal">
        <lane id=":13_10_0" index="0" speed="3.65" length="3.23" shape="1006.00,2500.80 1005.60,2500.00 1006.00,2499.20 1007.20,2498.40"/>
    </edge>
    <edge id=":13_3" function="internal">
        <lane id=":13_3_0" index="0" speed="6.51" length="9.03" shape="1001.60,2492.80 1001.95,2495.25 1003.00,2497.00 1004.75,2498.05 1007.20,2498.40"/>
    </edge>
    <edge id=":13_4" function="internal">
        <lane id=":13_4_0" index="0" speed="8.00" length="14.19" shape="1001.60,2492.80 1001.05,2496.65 999.40,2499.40 996.65,2501.05 992.80,2501.60"/>
    </edge>
    <edge id=":13_5" function="internal">
        <lane id=":13_5_0" index="0" speed="3.65" length="1.44" shape="1001.60,2492.80 1000.80,2494.00"/>
    </edge>
    <edge id=":13_11" function="internal">
        <lane id=":13_11_0" index="0" speed="3.65" length="3.23" shape="1000.80,2494.00 1000.00,2494.40 999.20,2494.00 998.40,2492.80"/>
    </edge>
    <edge id=":13_6" function="internal">
        <lane id=":13_6_0" index="0" speed="6.51" length="9.03" shape="992.80,2498.40 995.25,2498.05 997.00,2497.00 998.05,2495.25 998.40,2492.80"/>
    </edge>
    <edge id=":13_7" function="internal">
        <lane id=":13_7_0" index="0" speed="14.00" length="14.40" shape="992.80,2498.40 1007.20,2498.40"/>
    </edge>
    <edge id=":13_8" function="internal">
        <lane id=":13_8_0" index="0" speed="3.65" length="1.44" shape="992.80,2498.40 994.00,2499.20"/>
    </edge>
    <edge id=":13_12" function="internal">
        <lane id=":13_12_0" index="0" speed="3.65" length="3.23" shape="994.00,2499.20 994.40,2500.00 994.00,2500.80 992.80,2501.60"/>
    </edge>
    <edge id=":14_0" function="internal">
        <lane id=":14_0_0" index="0" speed="6.51" length="9.03" shape="998.40,2007.20 998.05,2004.75 997.00,2003.00 995.25,2001.95 992.80,2001.60"/>
    </edge>
    <edge id=":14_1" function="internal">
        <lane id=":14_1_0" index="0" speed="14.00" length="14.40" shape="998.40,2007.20 998.40,1992.80"/>
    </edge>
    <edge id=":14_2" function="internal">
        <lane id=":14_2_0" index="0" speed="8.00" length="4.07" shape="998.40,2007.20 998.95,2003.35 999.04,2003.20"/>
    </edge>
    <edge id=":14_3" function="internal">
        <lane id=":14_3_0" index="0" speed="3.65" length="1.44" shape="998.40,2007.20 999.20,2006.00"/>
    </edge>
    <edge id=":14_16" function="internal">
        <lane id=":14_16_0" index="0" speed="8.00" length="10.13" shape="999.04,2003.20 1000.60,2000.60 1003.35,1998.95 1007.20,1998.40"/>
    </edge>
    <edge id=":14_17" function="internal">
        <lane id=":14_17_0" index="0" speed="3.65" length="3.23" shape="999.20,2006.00 1000.00,2005.60 1000.80,2006.00 1001.60,2007.20"/>
    </edge>
    <edge id=":14_4" function="internal">
        <lane id=":14_4_0" index="0" speed="6.51" length="9.03" shape="1007.20,2001.60 1004.75,2001.95 1003.00,2003.00 1001.95,2004.75 1001.60,2007.20"/>
    </edge>
    <edge id=":14_5" function="internal">
        <lane id=":14_5_0" index="0" speed="14.00" length="14.40" shape="1007.20,2001.60 992.80,2001.60"/>
    </edge>
    <edge id=":14_6" function="internal">
        <lane id=":14_6_0" index="0" speed="8.00" length="4.07" shape="1007.20,2001.60 1003.35,2001.05 1003.20,2000.96"/>
    </edge>
    <edge id=":14_7" function="internal">
        <lane id=":14_7_0" index="0" speed="3.65" length="1.44" shape="1007.20,2001.60 1006.00,2000.80"/>
    </edge>
    <edge id=":14_18" function="internal">
        <lane id=":14_18_0" index="0" speed="8.00" length="10.13" shape="1003.20,2000.96 1000.60,1999.40 998.95,1996.65 998.40,1992.80"/>
    </edge>
    <edge id=":14_19" function="internal">
        <lane id=":14_19_0" index="0" speed="3.65" length="3.23" shape="1006.00,2000.80 1005.60,2000.00 1006.00,1999.20 1007.20,1998.40"/>
    </edge>
    <edge id=":14_8" function="internal">
        <lane id=":14_8_0" index="0" speed="6.51" length="9.03" shape="1001.60,1992.80 1001.95,1995.25 1003.00,1997.00 1004.75,1998.05 1007.20,1998.40"/>
    </edge>
    <edge id=":14_9" function="internal">
        <lane id=":14_9_0" index="0" speed="14.00" length="14.40" shape="1001.60,1992.80 1001.60,2007.20"/>
    </edge>
    <edge id=":14_10" function="internal">
        <lane id=":14_10_0" index="0" speed="8.00" length="4.07" shape="1001.60,1992.80 1001.05,1996.65 1000.96,1996.80"/>
    </edge>
    <edge id=":14_11" function="internal">
        <lane id=":14_11_0" index="0" speed="3.65" length="1.44" shape="1001.60,1992.80 1000.80,1994.00"/>
    </edge>
    <edge id=":14_20" function="internal">
        <lane id=":14_20_0" index="0" speed="8.00" length="10.13" shape="1000.96,1996.80 999.40,1999.40 996.65,2001.05 992.80,2001.60"/>
    </edge>
    <edge id=":14_21" function="internal">
        <lane id=":14_21_0" index="0" speed="3.65" length="3.23" shape="1000.80,1994.00 1000.00,1994.40 999.20,1994.00 998.40,1992.80"/>
    </edge>
    <edge id=":14_12" function="internal">
        <lane id=":14_12_0" index="0" speed="6.51" length="9.03" shape="992.80,1998.40 995.25,1998.05 997.00,1997.00 998.05,1995.25 998.40,1992.80"/>
    </edge>
    <edge id=":14_13" function="internal">
        <lane id=":14_13_0" index="0" speed="14.00" length="14.40" shape="992.80,1998.40 1007.20,1998.40"/>
    </edge>
    <edge id=":14_14" function="internal">
        <lane id=":14_14_0" index="0" speed="8.00" length="4.07" shape="992.80,1998.40 996.65,1998.95 996.80,1999.04"/>
    </edge>
    <edge id=":14_15" function="internal">
        <lane id=":14_15_0" index="0" speed="3.65" length="1.44" shape="992.80,1998.40 994.00,1999.20"/>
    </edge>
    <edge id=":14_22" function="internal">
        <lane id=":14_22_0" index="0" speed="8.00" length="10.13" shape="996.80,1999.04 999.40,2000.60 1001.05,2003.35 1001.60,2007.20"/>
    </edge>
    <edge id=":14_23" function="internal">
        <lane id=":14_23_0" index="0" speed="3.65" length="3.23" shape="994.00,1999.20 994.40,2000.00 994.00,2000.80 992.80,2001.60"/>
    </edge>
    <edge id=":15_0" function="internal">
        <lane id=":15_0_0" index="0" speed="5.47" length="9.74" shape="998.40,1511.73 998.05,1508.63 997.01,1507.22 995.27,1507.48 992.84,1509.42"/>
    </edge>
    <edge id=":15_1" function="internal">
        <lane id=":15_1_0" index="0" speed="8.54" length="16.33" shape="998.40,1511.73 997.77,1507.30 995.87,1504.13 992.70,1502.23 988.27,1501.60"/>
    </edge>
    <edge id=":15_2" function="internal">
        <lane id=":15_2_0" index="0" speed="14.00" length="18.93" shape="998.40,1511.73 998.40,1492.80"/>
    </edge>
    <edge id=":15_3" function="internal">
        <lane id=":15_3_0" index="0" speed="8.71" length="6.18" shape="998.40,1511.73 999.16,1507.40 999.90,1505.78"/>
    </edge>
    <edge id=":15_4" function="internal">
        <lane id=":15_4_0" index="0" speed="3.65" length="1.44" shape="998.40,1511.73 999.20,1510.53"/>
    </edge>
    <edge id=":15_25" function="internal">
        <lane id=":15_25_0" index="0" speed="8.71" length="10.84" shape="999.90,1505.78 1001.15,1503.07 1003.97,1499.73 1007.20,1498.40"/>
    </edge>
    <edge id=":15_26" function="internal">
        <lane id=":15_26_0" index="0" speed="3.65" length="3.23" shape="999.20,1510.53 1000.00,1510.13 1000.80,1510.53 1001.60,1511.73"/>
    </edge>
    <edge id=":15_5" function="internal">
        <lane id=":15_5_0" index="0" speed="7.65" length="12.89" shape="1007.20,1501.60 1004.75,1502.23 1003.00,1504.13 1001.95,1507.30 1001.60,1511.73"/>
    </edge>
    <edge id=":15_6" function="internal">
        <lane id=":15_6_0" index="0" speed="13.42" length="16.74" shape="1007.20,1501.60 1003.85,1502.09 1000.34,1503.56 996.67,1506.00 992.84,1509.42"/>
    </edge>
    <edge id=":15_7" function="internal">
        <lane id=":15_7_0" index="0" speed="14.00" length="18.93" shape="1007.20,1501.60 988.27,1501.60"/>
    </edge>
    <edge id=":15_8" function="internal">
        <lane id=":15_8_0" index="0" speed="8.00" length="4.07" shape="1007.20,1501.60 1003.35,1501.05 1003.20,1500.96"/>
    </edge>
    <edge id=":15_9" function="internal">
        <lane id=":15_9_0" index="0" speed="3.65" length="1.44" shape="1007.20,1501.60 1006.00,1500.80"/>
    </edge>
    <edge id=":15_27" function="internal">
        <lane id=":15_27_0" index="0" speed="8.00" length="10.13" shape="1003.20,1500.96 1000.60,1499.40 998.95,1496.65 998.40,1492.80"/>
    </edge>
    <edge id=":15_28" function="internal">
        <lane id=":15_28_0" index="0" speed="3.65" length="3.23" shape="1006.00,1500.80 1005.60,1500.00 1006.00,1499.20 1007.20,1498.40"/>
    </edge>
    <edge id=":15_10" function="internal">
        <lane id=":15_10_0" index="0" speed="6.51" length="9.03" shape="1001.60,1492.80 1001.95,1495.25 1003.00,1497.00 1004.75,1498.05 1007.20,1498.40"/>
    </edge>
    <edge id=":15_11" function="internal">
        <lane id=":15_11_0" index="0" speed="14.00" length="18.93" shape="1001.60,1492.80 1001.60,1511.73"/>
    </edge>
    <edge id=":15_12" function="internal">
        <lane id=":15_12_0" index="0" speed="14.00" length="4.39" shape="1001.60,1492.80 1001.05,1496.79 1000.92,1497.12"/>
    </edge>
    <edge id=":15_13" function="internal">
        <lane id=":15_13_0" index="0" speed="8.71" length="3.50" shape="1001.60,1492.80 1000.27,1496.03"/>
    </edge>
    <edge id=":15_14" function="internal">
        <lane id=":15_14_0" index="0" speed="3.65" length="1.44" shape="1001.60,1492.80 1000.80,1494.00"/>
    </edge>
    <edge id=":15_29" function="internal">
        <lane id=":15_29_0" index="0" speed="14.00" length="14.85" shape="1000.92,1497.12 999.41,1500.89 996.67,1505.10 992.84,1509.42"/>
    </edge>
    <edge id=":15_30" function="internal">