<nodes>
<node id="1" x="0" y="0" type="traffic_light" tlType="actuated"/>
<node id="2" x="0" y="-500" type="traffic_light" tlType="actuated"/>
<node id="3" x="0" y="-1000" type="traffic_light" tlType="actuated"/>
<node id="4" x="0" y="-1500" type="traffic_light" tlType="actuated"/>
<node id="5" x="0" y="-2000" type="traffic_light" tlType="actuated"/>
<node id="6" x="0" y="-2500" type="traffic_light" tlType="actuated"/>
<node id="7" x="500" y="0" type="traffic_light" tlType="actuated"/>
<node id="8" x="500" y="-500" type="traffic_light" tlType="actuated"/>
<node id="9" x="500" y="-1000" type="traffic_light" tlType="actuated"/>
<node id="10" x="500" y="-1500" type="traffic_light" tlType="actuated"/>
<node id="11" x="500" y="-2000" type="traffic_light" tlType="actuated"/>
<node id="12" x="500" y="-2500" type="traffic_light" tlType="actuated"/>
<node id="13" x="1000" y="0" type="traffic_light" tlType="actuated"/>
<node id="14" x="1000" y="-500" type="traffic_light" tlType="actuated"/>
<node id="15" x="1000" y="-1000" type="traffic_light" tlType="actuated"/>
<node id="16" x="1000" y="-1500" type="traffic_light" tlType="actuated"/>
<node id="17" x="1000" y="-2000" type="traffic_light" tlType="actuated"/>
<node id="18" x="1000" y="-2500" type="traffic_light" tlType="actuated"/>
<node id="19" x="1500" y="0" type="traffic_light" tlType="actuated"/>
<node id="20" x="1500" y="-500" type="traffic_light" tlType="actuated"/>
<node id="21" x="1500" y="-1000" type="traffic_light" tlType="actuated"/>
<node id="22" x="1500" y="-1500" type="traffic_light" tlType="actuated"/>
<node id="23" x="1500" y="-2000" type="traffic_light" tlType="actuated"/>
<node id="24" x="1500" y="-2500" type="traffic_light" tlType="actuated"/>
<node id="25" x="2000" y="0" type="traffic_light" tlType="actuated"/>
<node id="26" x="2000" y="-500" type="traffic_light" tlType="actuated"/>
<node id="27" x="2000" y="-1000" type="traffic_light" tlType="actuated"/>
<node id="28" x="2000" y="-1500" type="traffic_light" tlType="actuated"/>
<node id="29" x="2000" y="-2000" type="traffic_light" tlType="actuated"/>
<node id="30" x="2000" y="-2500" type="traffic_light" tlType="actuated"/>
<node id="31" x="2500" y="0" type="traffic_light" tlType="actuated"/>
<node id="32" x="2500" y="-500" type="traffic_light" tlType="actuated"/>
<node id="33" x="2500" y="-1000" type="traffic_light" tlType="actuated"/>
<node id="34" x="2500" y="-1500" type="traffic_light" tlType="actuated"/>
<node id="35" x="2500" y="-2000" type="traffic_light" tlType="actuated"/>
<node id="36" x="2500" y="-2500" type="traffic_light" tlType="actuated"/>
</nodes>