<tazs>
    <taz id="1" edges="e31"/>
    <taz id="2" edges="e60"/>
    <taz id="3" edges="e61"/>
    <taz id="4" edges="e64"/>
    <taz id="5" edges="e36"/>
    <taz id="6" edges="e55"/>
    <taz id="7" edges="e41"/>
    <taz id="8" edges="e50"/>
    <taz id="9" edges="e46"/>
    <taz id="10" edges="e45"/>
    <taz id="11" edges="e51"/>
    <taz id="12" edges="e40"/>
    <taz id="13" edges="e65"/>
    <taz id="14" edges="e68"/>
    <taz id="15" edges="e56"/>
    <taz id="16" edges="e35"/>
    <taz id="17" edges="re31"/>
    <taz id="18" edges="re60"/>
    <taz id="19" edges="re61"/>
    <taz id="20" edges="re64"/>
    <taz id="21" edges="re36"/>
    <taz id="22" edges="re55"/>
    <taz id="23" edges="re41"/>
    <taz id="24" edges="re50"/>
    <taz id="25" edges="re46"/>
    <taz id="26" edges="re45"/>
    <taz id="27" edges="re51"/>
    <taz id="28" edges="re40"/>
    <taz id="29" edges="re65"/>
    <taz id="30" edges="re68"/>
    <taz id="31" edges="re56"/>
    <taz id="32" edges="re35"/>
</tazs>