<routes xmlns:xsi="http://www.w3.org/2001/XMLSchema-instance" xsi:noNamespaceSchemaLocation="http://sumo.dlr.de/xsd/routes_file.xsd">
    <vehicle id="63" depart="0.79" departLane="free" departSpeed="max" fromTaz="1" toTaz="16">
        <route edges="e31 e32 e33 e34 e35" />
    </vehicle>
    <vehicle id="3188" depart="1.88" departLane="free" departSpeed="max" fromTaz="28" toTaz="27">
        <route edges="re40 re67 e18 re48 re66 re51" />
    </vehicle>
    <vehicle id="283" depart="2.83" departLane="free" departSpeed="max" fromTaz="1" toTaz="2" color="#FF0000">
        <route edges="e31 e6 e62 e43 e18 e63 e25 e60" />
    </vehicle>
    <vehicle id="3023" depart="4.33" departLane="free" departSpeed="max" fromTaz="28" toTaz="27">
        <route edges="re40 re67 e18 re48 re66 re51" />
    </vehicle>
    <vehicle id="519" depart="4.77" departLane="free" departSpeed="max" fromTaz="11" toTaz="12" color="#FF00FF">
        <route edges="e51 e66 re13 e43 e67 e40" />
    </vehicle>
    <vehicle id="3879" depart="4.80" departLane="free" departSpeed="max" fromTaz="32" toTaz="31">
        <route edges="re35 e21 re67 e18 re48 re66 e10 re56" />
    </vehicle>
    <vehicle id="4523" depart="6.04" departLane="free" departSpeed="max" fromTaz="7" toTaz="8" color="#00FF00">
        <route edges="e41 e42 e43 e18 e49 e50" />
    </vehicle>
    <vehicle id="3059" depart="7.36" departLane="free" departSpeed="max" fromTaz="28" toTaz="27">
        <route edges="re40 re67 e18 re48 re66 re51" />
    </vehicle>
    <vehicle id="4133" depart="8.70" departLane="free" departSpeed="max" fromTaz="5" toTaz="12">
        <route edges="e36 e37 e38 e39 e40" />
    </vehicle>
    <vehicle id="2251" depart="10.87" departLane="free" departSpeed="max" fromTaz="22" toTaz="27">
        <route edges="re55 re54 re53 re52 re51" />
    </vehicle>
    <vehicle id="3015" depart="11.00" departLane="free" departSpeed="max" fromTaz="28" toTaz="27">
        <route edges="re40 re67 e18 re48 re66 re51" />
    </vehicle>
    <vehicle id="245" depart="11.12" departLane="free" departSpeed="max" fromTaz="1" toTaz="2" color="#FF0000">
        <route edges="e31 e6 e62 e43 e18 e63 e25 e60" />
    </vehicle>
    <vehicle id="2648" depart="11.33" departLane="free" departSpeed="max" fromTaz="26" toTaz="25">
        <route edges="re45 re44 e18 re48 re47 re46" />
    </vehicle>
    <vehicle id="2374" depart="11.57" departLane="free" departSpeed="max" fromTaz="22" toTaz="27">
        <route edges="re55 re54 re53 re52 re51" />
    </vehicle>
    <vehicle id="4233" depart="11.71" departLane="free" departSpeed="max" fromTaz="5" toTaz="6" color="#FFFF00">
        <route edges="e36 e62 e43 e18 e63 e55" />
    </vehicle>
    <vehicle id="4753" depart="12.17" departLane="free" departSpeed="max" fromTaz="9" toTaz="10" color="#0000FF">
        <route edges="e46 e47 re13 e43 e44 e45" />
    </vehicle>
    <vehicle id="1578" depart="14.07" departLane="free" departSpeed="max" fromTaz="18" toTaz="17">
        <route edges="re60 re25 re63 re48 re13 re62 re6 re31" />
    </vehicle>
    <vehicle id="2005" depart="14.71" departLane="free" departSpeed="max" fromTaz="22" toTaz="21">
        <route edges="re55 re63 re48 re13 re62 re36" />
    </vehicle>
    <vehicle id="2547" depart="15.90" departLane="free" departSpeed="max" fromTaz="24" toTaz="23">
        <route edges="re50 re49 re48 re13 re42 re41" />
    </vehicle>
    <vehicle id="1348" depart="16.08" departLane="free" departSpeed="max" fromTaz="15" toTaz="2">
        <route edges="e56 e57 e58 e59 e60" />
    </vehicle>
    <vehicle id="3869" depart="16.08" departLane="free" departSpeed="max" fromTaz="32" toTaz="31">
        <route edges="re35 e21 re67 e18 re48 re66 e10 re56" />
    </vehicle>
    <vehicle id="88" depart="16.72" departLane="free" departSpeed="max" fromTaz="1" toTaz="16">
        <route edges="e31 e32 e33 e34 e35" />
    </vehicle>
    <vehicle id="4609" depart="18.30" departLane="free" departSpeed="max" fromTaz="9" toTaz="10" color="#0000FF">
        <route edges="e46 e47 re13 e43 e44 e45" />
    </vehicle>
    <vehicle id="9" depart="18.39" departLane="free" departSpeed="max" fromTaz="1" toTaz="16">
        <route edges="e31 e32 e33 e34 e35" />
    </vehicle>
    <vehicle id="4633" depart="18.64" departLane="free" departSpeed="max" fromTaz="9" toTaz="10" color="#0000FF">
        <route edges="e46 e47 re13 e43 e44 e45" />
    </vehicle>
    <vehicle id="3457" depart="18.86" departLane="free" departSpeed="max" fromTaz="30" toTaz="29">
        <route edges="re68 re67 e18 re48 re66 re65" />
    </vehicle>
    <vehicle id="4538" depart="18.94" departLane="free" departSpeed="max" fromTaz="7" toTaz="8" color="#00FF00">
        <route edges="e41 e42 e43 e18 e49 e50" />
    </vehicle>
    <vehicle id="748" depart="18.97" departLane="free" departSpeed="max" fromTaz="11" toTaz="6">
        <route edges="e51 e52 e53 e54 e55" />
    </vehicle>
    <vehicle id="412" depart="19.61" departLane="free" departSpeed="max" fromTaz="11" toTaz="12" color="#FF00FF">
        <route edges="e51 e66 re13 e43 e67 e40" />
    </vehicle>
    <vehicle id="2521" depart="19.73" departLane="free" departSpeed="max" fromTaz="24" toTaz="23">
        <route edges="re50 re49 re48 re13 re42 re41" />
    </vehicle>
    <vehicle id="4631" depart="21.21" departLane="free" departSpeed="max" fromTaz="9" toTaz="10" color="#0000FF">
        <route edges="e46 e47 re13 e43 e44 e45" />
    </vehicle>
    <vehicle id="1596" depart="21.76" departLane="free" departSpeed="max" fromTaz="18" toTaz="17">
        <route edges="re60 re25 re63 re48 re13 re62 re6 re31" />
    </vehicle>
    <vehicle id="4645" depart="22.42" departLane="free" departSpeed="max" fromTaz="9" toTaz="10" color="#0000FF">
        <route edges="e46 e47 re13 e43 e44 e45" />
    </vehicle>
    <vehicle id="3040" depart="22.69" departLane="free" departSpeed="max" fromTaz="28" toTaz="27">
        <route edges="re40 re67 e18 re48 re66 re51" />
    </vehicle>
    <vehicle id="1394" depart="22.82" departLane="free" departSpeed="max" fromTaz="15" toTaz="2">
        <route edges="e56 e57 e58 e59 e60" />
    </vehicle>
    <vehicle id="391" depart="23.05" departLane="free" departSpeed="max" fromTaz="1" toTaz="2" color="#FF0000">
        <route edges="e31 e6 e62 e43 e18 e63 e25 e60" />
    </vehicle>
    <vehicle id="4282" depart="23.87" departLane="free" departSpeed="max" fromTaz="5" toTaz="6" color="#FFFF00">
        <route edges="e36 e62 e43 e18 e63 e55" />
    </vehicle>
    <vehicle id="1141" depart="23.89" departLane="free" departSpeed="max" fromTaz="15" toTaz="16" color="#00FFFF">
        <route edges="e56 re10 e66 re13 e43 e67 re21 e35" />
    </vehicle>
    <vehicle id="1425" depart="24.44" departLane="free" departSpeed="max" fromTaz="18" toTaz="17">
        <route edges="re60 re25 re63 re48 re13 re62 re6 re31" />
    </vehicle>
    <vehicle id="3299" depart="25.12" departLane="free" departSpeed="max" fromTaz="3" toTaz="4" color="#FFA500">
        <route edges="e61 e62 e43 e18 e63 e64" />
    </vehicle>
    <vehicle id="3794" depart="25.71" departLane="free" departSpeed="max" fromTaz="32" toTaz="17">
        <route edges="re35 re34 re33 re32 re31" />
    </vehicle>
    <vehicle id="3629" depart="25.74" departLane="free" departSpeed="max" fromTaz="32" toTaz="17">
        <route edges="re35 re34 re33 re32 re31" />
    </vehicle>
    <vehicle id="1772" depart="25.86" departLane="free" departSpeed="max" fromTaz="18" toTaz="31">
        <route edges="re60 re59 re58 re57 re56" />
    </vehicle>
    <vehicle id="3430" depart="27.26" departLane="free" departSpeed="max" fromTaz="30" toTaz="29">
        <route edges="re68 re67 e18 re48 re66 re65" />
    </vehicle>
    <vehicle id="3551" depart="29.89" departLane="free" departSpeed="max" fromTaz="30" toTaz="29">
        <route edges="re68 re67 e18 re48 re66 re65" />
    </vehicle>
    <vehicle id="1384" depart="32.14" departLane="free" departSpeed="max" fromTaz="15" toTaz="2">
        <route edges="e56 e57 e58 e59 e60" />
    </vehicle>
    <vehicle id="1749" depart="35.00" departLane="free" departSpeed="max" fromTaz="18" toTaz="31">
        <route edges="re60 re59 re58 re57 re56" />
    </vehicle>
    <vehicle id="3667" depart="35.90" departLane="free" departSpeed="max" fromTaz="32" toTaz="17">
        <route edges="re35 re34 re33 re32 re31" />
    </vehicle>
    <vehicle id="3006" depart="36.22" departLane="free" departSpeed="max" fromTaz="28" toTaz="27">
        <route edges="re40 re67 e18 re48 re66 re51" />
    </vehicle>
    <vehicle id="1286" depart="36.35" departLane="free" departSpeed="max" fromTaz="15" toTaz="2">
        <route edges="e56 e57 e58 e59 e60" />
    </vehicle>
    <vehicle id="198" depart="36.86" departLane="free" departSpeed="max" fromTaz="1" toTaz="16">
        <route edges="e31 e32 e33 e34 e35" />
    </vehicle>
    <vehicle id="2365" depart="37.22" departLane="free" departSpeed="max" fromTaz="22" toTaz="27">
        <route edges="re55 re54 re53 re52 re51" />
    </vehicle>
    <vehicle id="2974" depart="37.59" departLane="free" departSpeed="max" fromTaz="28" toTaz="21">
        <route edges="re40 re39 re38 re37 re36" />
    </vehicle>
    <vehicle id="526" depart="37.70" departLane="free" departSpeed="max" fromTaz="11" toTaz="12" color="#FF00FF">
        <route edges="e51 e66 re13 e43 e67 e40" />
    </vehicle>
    <vehicle id="4336" depart="38.76" departLane="free" departSpeed="max" fromTaz="5" toTaz="6" color="#FFFF00">
        <route edges="e36 e62 e43 e18 e63 e55" />
    </vehicle>
    <vehicle id="142" depart="39.03" departLane="free" departSpeed="max" fromTaz="1" toTaz="16">
        <route edges="e31 e32 e33 e34 e35" />
    </vehicle>
    <vehicle id="4421" depart="42.17" departLane="free" departSpeed="max" fromTaz="7" toTaz="8" color="#00FF00">
        <route edges="e41 e42 e43 e18 e49 e50" />
    </vehicle>
    <vehicle id="3367" depart="42.24" departLane="free" departSpeed="max" fromTaz="3" toTaz="4" color="#FFA500">
        <route edges="e61 e62 e43 e18 e63 e64" />
    </vehicle>
    <vehicle id="3619" depart="42.31" departLane="free" departSpeed="max" fromTaz="32" toTaz="17">
        <route edges="re35 re34 re33 re32 re31" />
    </vehicle>
    <vehicle id="3572" depart="42.40" departLane="free" departSpeed="max" fromTaz="30" toTaz="29">
        <route edges="re68 re67 e18 re48 re66 re65" />
    </vehicle>
    <vehicle id="3677" depart="42.53" departLane="free" departSpeed="max" fromTaz="32" toTaz="17">
        <route edges="re35 re34 re33 re32 re31" />
    </vehicle>
    <vehicle id="2600" depart="42.68" departLane="free" departSpeed="max" fromTaz="26" toTaz="25">
        <route edges="re45 re44 e18 re48 re47 re46" />
    </vehicle>
    <vehicle id="4725" depart="43.31" departLane="free" departSpeed="max" fromTaz="9" toTaz="10" color="#0000FF">
        <route edges="e46 e47 re13 e43 e44 e45" />
    </vehicle>
    <vehicle id="1413" depart="44.99" departLane="free" departSpeed="max" fromTaz="18" toTaz="17">
        <route edges="re60 re25 re63 re48 re13 re62 re6 re31" />
    </vehicle>
    <vehicle id="4697" depart="46.74" departLane="free" departSpeed="max" fromTaz="9" toTaz="10" color="#0000FF">
        <route edges="e46 e47 re13 e43 e44 e45" />
    </vehicle>
    <vehicle id="3761" depart="46.80" departLane="free" departSpeed="max" fromTaz="32" toTaz="17">
        <route edges="re35 re34 re33 re32 re31" />
    </vehicle>
    <vehicle id="2853" depart="46.85" departLane="free" departSpeed="max" fromTaz="28" toTaz="21">
        <route edges="re40 re39 re38 re37 re36" />
    </vehicle>
    <vehicle id="571" depart="46.90" departLane="free" departSpeed="max" fromTaz="11" toTaz="12" color="#FF00FF">
        <route edges="e51 e66 re13 e43 e67 e40" />
    </vehicle>
    <vehicle id="3651" depart="47.47" departLane="free" departSpeed="max" fromTaz="32" toTaz="17">
        <route edges="re35 re34 re33 re32 re31" />
    </vehicle>
    <vehicle id="771" depart="47.95" departLane="free" departSpeed="max" fromTaz="11" toTaz="6">
        <route edges="e51 e52 e53 e54 e55" />
    </vehicle>
    <vehicle id="1241" depart="49.05" departLane="free" departSpeed="max" fromTaz="15" toTaz="2">
        <route edges="e56 e57 e58 e59 e60" />
    </vehicle>
    <vehicle id="2383" depart="49.06" departLane="free" departSpeed="max" fromTaz="22" toTaz="27">
        <route edges="re55 re54 re53 re52 re51" />
    </vehicle>
    <vehicle id="2339" depart="49.22" departLane="free" departSpeed="max" fromTaz="22" toTaz="27">
        <route edges="re55 re54 re53 re52 re51" />
    </vehicle>
    <vehicle id="4428" depart="49.85" departLane="free" departSpeed="max" fromTaz="7" toTaz="8" color="#00FF00">
        <route edges="e41 e42 e43 e18 e49 e50" />
    </vehicle>
    <vehicle id="2857" depart="49.86" departLane="free" departSpeed="max" fromTaz="28" toTaz="21">
        <route edges="re40 re39 re38 re37 re36" />
    </vehicle>
    <vehicle id="4028" depart="50.70" departLane="free" departSpeed="max" fromTaz="5" toTaz="12">
        <route edges="e36 e37 e38 e39 e40" />
    </vehicle>
    <vehicle id="1443" depart="51.33" departLane="free" departSpeed="max" fromTaz="18" toTaz="17">
        <route edges="re60 re25 re63 re48 re13 re62 re6 re31" />
    </vehicle>
    <vehicle id="3147" depart="52.62" departLane="free" departSpeed="max" fromTaz="28" toTaz="27">
        <route edges="re40 re67 e18 re48 re66 re51" />
    </vehicle>
    <vehicle id="3564" depart="53.26" departLane="free" departSpeed="max" fromTaz="30" toTaz="29">
        <route edges="re68 re67 e18 re48 re66 re65" />
    </vehicle>
    <vehicle id="3446" depart="53.56" departLane="free" departSpeed="max" fromTaz="30" toTaz="29">
        <route edges="re68 re67 e18 re48 re66 re65" />
    </vehicle>
    <vehicle id="1674" depart="53.94" departLane="free" departSpeed="max" fromTaz="18" toTaz="31">
        <route edges="re60 re59 re58 re57 re56" />
    </vehicle>
    <vehicle id="543" depart="54.47" departLane="free" departSpeed="max" fromTaz="11" toTaz="12" color="#FF00FF">
        <route edges="e51 e66 re13 e43 e67 e40" />
    </vehicle>
    <vehicle id="1946" depart="55.13" departLane="free" departSpeed="max" fromTaz="20" toTaz="19">
        <route edges="re64 re63 re48 re13 re62 re61" />
    </vehicle>
    <vehicle id="1324" depart="55.39" departLane="free" departSpeed="max" fromTaz="15" toTaz="2">
        <route edges="e56 e57 e58 e59 e60" />
    </vehicle>
    <vehicle id="5" depart="55.65" departLane="free" departSpeed="max" fromTaz="1" toTaz="16">
        <route edges="e31 e32 e33 e34 e35" />
    </vehicle>
    <vehicle id="2787" depart="55.81" departLane="free" departSpeed="max" fromTaz="26" toTaz="25">
        <route edges="re45 re44 e18 re48 re47 re46" />
    </vehicle>
    <vehicle id="3389" depart="56.04" departLane="free" departSpeed="max" fromTaz="3" toTaz="4" color="#FFA500">
        <route edges="e61 e62 e43 e18 e63 e64" />
    </vehicle>
    <vehicle id="1868" depart="56.27" departLane="free" departSpeed="max" fromTaz="20" toTaz="19">
        <route edges="re64 re63 re48 re13 re62 re61" />
    </vehicle>
    <vehicle id="2728" depart="58.71" departLane="free" departSpeed="max" fromTaz="26" toTaz="25">
        <route edges="re45 re44 e18 re48 re47 re46" />
    </vehicle>
    <vehicle id="3343" depart="58.83" departLane="free" departSpeed="max" fromTaz="3" toTaz="4" color="#FFA500">
        <route edges="e61 e62 e43 e18 e63 e64" />
    </vehicle>
    <vehicle id="3668" depart="59.01" departLane="free" departSpeed="max" fromTaz="32" toTaz="17">
        <route edges="re35 re34 re33 re32 re31" />
    </vehicle>
    <vehicle id="1048" depart="59.07" departLane="free" departSpeed="max" fromTaz="15" toTaz="16" color="#00FFFF">
        <route edges="e56 re10 e66 re13 e43 e67 re21 e35" />
    </vehicle>
    <vehicle id="2400" depart="59.51" departLane="free" departSpeed="max" fromTaz="24" toTaz="23">
        <route edges="re50 re49 re48 re13 re42 re41" />
    </vehicle>
    <vehicle id="1427" depart="59.85" departLane="free" departSpeed="max" fromTaz="18" toTaz="17">
        <route edges="re60 re25 re63 re48 re13 re62 re6 re31" />
    </vehicle>
    <vehicle id="3592" depart="60.66" departLane="free" departSpeed="max" fromTaz="30" toTaz="29">
        <route edges="re68 re67 e18 re48 re66 re65" />
    </vehicle>
    <vehicle id="1151" depart="63.18" departLane="free" departSpeed="max" fromTaz="15" toTaz="16" color="#00FFFF">
        <route edges="e56 re10 e66 re13 e43 e67 re21 e35" />
    </vehicle>
    <vehicle id="2180" depart="64.13" departLane="free" departSpeed="max" fromTaz="22" toTaz="21">
        <route edges="re55 re63 re48 re13 re62 re36" />
    </vehicle>
    <vehicle id="1867" depart="65.23" departLane="free" departSpeed="max" fromTaz="20" toTaz="19">
        <route edges="re64 re63 re48 re13 re62 re61" />
    </vehicle>
    <vehicle id="1554" depart="66.73" departLane="free" departSpeed="max" fromTaz="18" toTaz="17">
        <route edges="re60 re25 re63 re48 re13 re62 re6 re31" />
    </vehicle>
    <vehicle id="2405" depart="66.85" departLane="free" departSpeed="max" fromTaz="24" toTaz="23">
        <route edges="re50 re49 re48 re13 re42 re41" />
    </vehicle>
    <vehicle id="3946" depart="67.39" departLane="free" departSpeed="max" fromTaz="32" toTaz="31">
        <route edges="re35 e21 re67 e18 re48 re66 e10 re56" />
    </vehicle>
    <vehicle id="3995" depart="70.47" departLane="free" departSpeed="max" fromTaz="32" toTaz="31">
        <route edges="re35 e21 re67 e18 re48 re66 e10 re56" />
    </vehicle>
    <vehicle id="1825" depart="70.69" departLane="free" departSpeed="max" fromTaz="20" toTaz="19">
        <route edges="re64 re63 re48 re13 re62 re61" />
    </vehicle>
    <vehicle id="597" depart="70.72" departLane="free" departSpeed="max" fromTaz="11" toTaz="12" color="#FF00FF">
        <route edges="e51 e66 re13 e43 e67 e40" />
    </vehicle>
    <vehicle id="3670" depart="71.75" departLane="free" departSpeed="max" fromTaz="32" toTaz="17">
        <route edges="re35 re34 re33 re32 re31" />
    </vehicle>
    <vehicle id="1073" depart="72.86" departLane="free" departSpeed="max" fromTaz="15" toTaz="16" color="#00FFFF">
        <route edges="e56 re10 e66 re13 e43 e67 re21 e35" />
    </vehicle>
    <vehicle id="4230" depart="73.45" departLane="free" departSpeed="max" fromTaz="5" toTaz="6" color="#FFFF00">
        <route edges="e36 e62 e43 e18 e63 e55" />
    </vehicle>
    <vehicle id="587" depart="73.98" departLane="free" departSpeed="max" fromTaz="11" toTaz="12" color="#FF00FF">
        <route edges="e51 e66 re13 e43 e67 e40" />
    </vehicle>
    <vehicle id="4064" depart="74.05" departLane="free" departSpeed="max" fromTaz="5" toTaz="12">
        <route edges="e36 e37 e38 e39 e40" />
    </vehicle>
    <vehicle id="3025" depart="74.14" departLane="free" departSpeed="max" fromTaz="28" toTaz="27">
        <route edges="re40 re67 e18 re48 re66 re51" />
    </vehicle>
    <vehicle id="2542" depart="74.54" departLane="free" departSpeed="max" fromTaz="24" toTaz="23">
        <route edges="re50 re49 re48 re13 re42 re41" />
    </vehicle>
    <vehicle id="4417" depart="75.03" departLane="free" departSpeed="max" fromTaz="7" toTaz="8" color="#00FF00">
        <route edges="e41 e42 e43 e18 e49 e50" />
    </vehicle>
    <vehicle id="710" depart="76.05" departLane="free" departSpeed="max" fromTaz="11" toTaz="6">
        <route edges="e51 e52 e53 e54 e55" />
    </vehicle>
    <vehicle id="551" depart="76.76" departLane="free" departSpeed="max" fromTaz="11" toTaz="12" color="#FF00FF">
        <route edges="e51 e66 re13 e43 e67 e40" />
    </vehicle>
    <vehicle id="2366" depart="77.29" departLane="free" departSpeed="max" fromTaz="22" toTaz="27">
        <route edges="re55 re54 re53 re52 re51" />
    </vehicle>
    <vehicle id="4123" depart="77.78" departLane="free" departSpeed="max" fromTaz="5" toTaz="12">
        <route edges="e36 e37 e38 e39 e40" />
    </vehicle>
    <vehicle id="418" depart="77.89" departLane="free" departSpeed="max" fromTaz="11" toTaz="12" color="#FF00FF">
        <route edges="e51 e66 re13 e43 e67 e40" />
    </vehicle>
    <vehicle id="2619" depart="80.18" departLane="free" departSpeed="max" fromTaz="26" toTaz="25">
        <route edges="re45 re44 e18 re48 re47 re46" />
    </vehicle>
    <vehicle id="4503" depart="80.40" departLane="free" departSpeed="max" fromTaz="7" toTaz="8" color="#00FF00">
        <route edges="e41 e42 e43 e18 e49 e50" />
    </vehicle>
    <vehicle id="111" depart="81.63" departLane="free" departSpeed="max" fromTaz="1" toTaz="16">
        <route edges="e31 e32 e33 e34 e35" />
    </vehicle>
    <vehicle id="3411" depart="82.31" departLane="free" departSpeed="max" fromTaz="30" toTaz="29">
        <route edges="re68 re67 e18 re48 re66 re65" />
    </vehicle>
    <vehicle id="3152" depart="83.37" departLane="free" departSpeed="max" fromTaz="28" toTaz="27">
        <route edges="re40 re67 e18 re48 re66 re51" />
    </vehicle>
    <vehicle id="4688" depart="84.33" departLane="free" departSpeed="max" fromTaz="9" toTaz="10" color="#0000FF">
        <route edges="e46 e47 re13 e43 e44 e45" />
    </vehicle>
    <vehicle id="2932" depart="85.77" departLane="free" departSpeed="max" fromTaz="28" toTaz="21">
        <route edges="re40 re39 re38 re37 re36" />
    </vehicle>
    <vehicle id="827" depart="88.88" departLane="free" departSpeed="max" fromTaz="13" toTaz="14" color="#EE82EE">
        <route edges="e65 e66 re13 e43 e67 e68" />
    </vehicle>
    <vehicle id="4693" depart="91.27" departLane="free" departSpeed="max" fromTaz="9" toTaz="10" color="#0000FF">
        <route edges="e46 e47 re13 e43 e44 e45" />
    </vehicle>
    <vehicle id="4476" depart="91.43" departLane="free" departSpeed="max" fromTaz="7" toTaz="8" color="#00FF00">
        <route edges="e41 e42 e43 e18 e49 e50" />
    </vehicle>
    <vehicle id="905" depart="92.51" departLane="free" departSpeed="max" fromTaz="13" toTaz="14" color="#EE82EE">
        <route edges="e65 e66 re13 e43 e67 e68" />
    </vehicle>
    <vehicle id="3312" depart="92.85" departLane="free" departSpeed="max" fromTaz="3" toTaz="4" color="#FFA500">
        <route edges="e61 e62 e43 e18 e63 e64" />
    </vehicle>
    <vehicle id="1364" depart="94.16" departLane="free" departSpeed="max" fromTaz="15" toTaz="2">
        <route edges="e56 e57 e58 e59 e60" />
    </vehicle>
    <vehicle id="2680" depart="94.22" departLane="free" departSpeed="max" fromTaz="26" toTaz="25">
        <route edges="re45 re44 e18 re48 re47 re46" />
    </vehicle>
    <vehicle id="3918" depart="95.45" departLane="free" departSpeed="max" fromTaz="32" toTaz="31">
        <route edges="re35 e21 re67 e18 re48 re66 e10 re56" />
    </vehicle>
    <vehicle id="3722" depart="95.74" departLane="free" departSpeed="max" fromTaz="32" toTaz="17">
        <route edges="re35 re34 re33 re32 re31" />
    </vehicle>
    <vehicle id="913" depart="95.90" departLane="free" departSpeed="max" fromTaz="13" toTaz="14" color="#EE82EE">
        <route edges="e65 e66 re13 e43 e67 e68" />
    </vehicle>
    <vehicle id="2981" depart="97.49" departLane="free" departSpeed="max" fromTaz="28" toTaz="21">
        <route edges="re40 re39 re38 re37 re36" />
    </vehicle>
    <vehicle id="3712" depart="98.40" departLane="free" departSpeed="max" fromTaz="32" toTaz="17">
        <route edges="re35 re34 re33 re32 re31" />
    </vehicle>
    <vehicle id="3801" depart="98.90" departLane="free" departSpeed="max" fromTaz="32" toTaz="31">
        <route edges="re35 e21 re67 e18 re48 re66 e10 re56" />
    </vehicle>
    <vehicle id="1381" depart="100.27" departLane="free" departSpeed="max" fromTaz="15" toTaz="2">
        <route edges="e56 e57 e58 e59 e60" />
    </vehicle>
    <vehicle id="3435" depart="100.87" departLane="free" departSpeed="max" fromTaz="30" toTaz="29">
        <route edges="re68 re67 e18 re48 re66 re65" />
    </vehicle>
    <vehicle id="4483" depart="100.90" departLane="free" departSpeed="max" fromTaz="7" toTaz="8" color="#00FF00">
        <route edges="e41 e42 e43 e18 e49 e50" />
    </vehicle>
    <vehicle id="223" depart="101.43" departLane="free" departSpeed="max" fromTaz="1" toTaz="2" color="#FF0000">
        <route edges="e31 e6 e62 e43 e18 e63 e25 e60" />
    </vehicle>
    <vehicle id="1692" depart="101.87" departLane="free" departSpeed="max" fromTaz="18" toTaz="31">
        <route edges="re60 re59 re58 re57 re56" />
    </vehicle>
    <vehicle id="1906" depart="103.47" departLane="free" departSpeed="max" fromTaz="20" toTaz="19">
        <route edges="re64 re63 re48 re13 re62 re61" />
    </vehicle>
    <vehicle id="1630" depart="103.83" departLane="free" departSpeed="max" fromTaz="18" toTaz="31">
        <route edges="re60 re59 re58 re57 re56" />
    </vehicle>
    <vehicle id="1201" depart="104.56" departLane="free" departSpeed="max" fromTaz="15" toTaz="2">
        <route edges="e56 e57 e58 e59 e60" />
    </vehicle>
    <vehicle id="4437" depart="105.13" departLane="free" departSpeed="max" fromTaz="7" toTaz="8" color="#00FF00">
        <route edges="e41 e42 e43 e18 e49 e50" />
    </vehicle>
    <vehicle id="508" depart="105.18" departLane="free" departSpeed="max" fromTaz="11" toTaz="12" color="#FF00FF">
        <route edges="e51 e66 re13 e43 e67 e40" />
    </vehicle>
    <vehicle id="1757" depart="105.24" departLane="free" departSpeed="max" fromTaz="18" toTaz="31">
        <route edges="re60 re59 re58 re57 re56" />
    </vehicle>
    <vehicle id="399" depart="106.94" departLane="free" departSpeed="max" fromTaz="1" toTaz="2" color="#FF0000">
        <route edges="e31 e6 e62 e43 e18 e63 e25 e60" />
    </vehicle>
    <vehicle id="367" depart="107.93" departLane="free" departSpeed="max" fromTaz="1" toTaz="2" color="#FF0000">
        <route edges="e31 e6 e62 e43 e18 e63 e25 e60" />
    </vehicle>
    <vehicle id="2009" depart="108.20" departLane="free" departSpeed="max" fromTaz="22" toTaz="21">
        <route edges="re55 re63 re48 re13 re62 re36" />
    </vehicle>
    <vehicle id="694" depart="108.25" departLane="free" departSpeed="max" fromTaz="11" toTaz="6">
        <route edges="e51 e52 e53 e54 e55" />
    </vehicle>
    <vehicle id="1334" depart="108.76" departLane="free" departSpeed="max" fromTaz="15" toTaz="2">
        <route edges="e56 e57 e58 e59 e60" />
    </vehicle>
    <vehicle id="871" depart="108.86" departLane="free" departSpeed="max" fromTaz="13" toTaz="14" color="#EE82EE">
        <route edges="e65 e66 re13 e43 e67 e68" />
    </vehicle>
    <vehicle id="2839" depart="109.13" departLane="free" departSpeed="max" fromTaz="28" toTaz="21">
        <route edges="re40 re39 re38 re37 re36" />
    </vehicle>
    <vehicle id="882" depart="110.09" departLane="free" departSpeed="max" fromTaz="13" toTaz="14" color="#EE82EE">
        <route edges="e65 e66 re13 e43 e67 e68" />
    </vehicle>
    <vehicle id="4303" depart="111.10" departLane="free" departSpeed="max" fromTaz="5" toTaz="6" color="#FFFF00">
        <route edges="e36 e62 e43 e18 e63 e55" />
    </vehicle>
    <vehicle id="2782" depart="112.78" departLane="free" departSpeed="max" fromTaz="26" toTaz="25">
        <route edges="re45 re44 e18 re48 re47 re46" />
    </vehicle>
    <vehicle id="1649" depart="113.22" departLane="free" departSpeed="max" fromTaz="18" toTaz="31">
        <route edges="re60 re59 re58 re57 re56" />
    </vehicle>
    <vehicle id="370" depart="114.89" departLane="free" departSpeed="max" fromTaz="1" toTaz="2" color="#FF0000">
        <route edges="e31 e6 e62 e43 e18 e63 e25 e60" />
    </vehicle>
    <vehicle id="4198" depart="115.00" departLane="free" departSpeed="max" fromTaz="5" toTaz="12">
        <route edges="e36 e37 e38 e39 e40" />
    </vehicle>
    <vehicle id="129" depart="116.59" departLane="free" departSpeed="max" fromTaz="1" toTaz="16">
        <route edges="e31 e32 e33 e34 e35" />
    </vehicle>
    <vehicle id="3266" depart="118.42" departLane="free" departSpeed="max" fromTaz="3" toTaz="4" color="#FFA500">
        <route edges="e61 e62 e43 e18 e63 e64" />
    </vehicle>
    <vehicle id="958" depart="120.35" departLane="free" departSpeed="max" fromTaz="13" toTaz="14" color="#EE82EE">
        <route edges="e65 e66 re13 e43 e67 e68" />
    </vehicle>
    <vehicle id="1947" depart="121.15" departLane="free" departSpeed="max" fromTaz="20" toTaz="19">
        <route edges="re64 re63 re48 re13 re62 re61" />
    </vehicle>
    <vehicle id="1831" depart="121.91" departLane="free" departSpeed="max" fromTaz="20" toTaz="19">
        <route edges="re64 re63 re48 re13 re62 re61" />
    </vehicle>
    <vehicle id="4032" depart="123.28" departLane="free" departSpeed="max" fromTaz="5" toTaz="12">
        <route edges="e36 e37 e38 e39 e40" />
    </vehicle>
    <vehicle id="4302" depart="123.85" departLane="free" departSpeed="max" fromTaz="5" toTaz="6" color="#FFFF00">
        <route edges="e36 e62 e43 e18 e63 e55" />
    </vehicle>
    <vehicle id="4089" depart="124.14" departLane="free" departSpeed="max" fromTaz="5" toTaz="12">
        <route edges="e36 e37 e38 e39 e40" />
    </vehicle>
    <vehicle id="942" depart="127.28" departLane="free" departSpeed="max" fromTaz="13" toTaz="14" color="#EE82EE">
        <route edges="e65 e66 re13 e43 e67 e68" />
    </vehicle>
    <vehicle id="3974" depart="127.66" departLane="free" departSpeed="max" fromTaz="32" toTaz="31">
        <route edges="re35 e21 re67 e18 re48 re66 e10 re56" />
    </vehicle>
    <vehicle id="3614" depart="128.00" departLane="free" departSpeed="max" fromTaz="32" toTaz="17">
        <route edges="re35 re34 re33 re32 re31" />
    </vehicle>
    <vehicle id="1577" depart="128.15" departLane="free" departSpeed="max" fromTaz="18" toTaz="17">
        <route edges="re60 re25 re63 re48 re13 re62 re6 re31" />
    </vehicle>
    <vehicle id="1511" depart="128.61" departLane="free" departSpeed="max" fromTaz="18" toTaz="17">
        <route edges="re60 re25 re63 re48 re13 re62 re6 re31" />
    </vehicle>